   25

C      -0.710000    1.229000    6.000000
C       0.000000    0.000000    6.000000
C       1.420000    0.000000    6.000000
C       2.130000    1.229000    6.000000
C       1.420000    2.459000    6.000000
C       0.000000    2.459000    6.000000
C       3.550000    1.229000    6.000000
C       4.260000    0.000000    6.000000
C       5.680000    0.000000    6.000000
C       6.390000    1.229000    6.000000
C       5.680000    2.459000    6.000000
C       4.260000    2.459000    6.000000
C       2.130000    3.688000    6.000000
C       3.550000    3.688000    6.000000
C       1.420000    4.919000    6.000000
C       4.260000    4.919000    6.000000
C       7.810000    1.229000    6.000000
C       8.520000    0.000000    6.000000
C       9.940000    0.000000    6.000000
C      10.650000    1.229000    6.000000
C      12.070000    1.229000    6.000000
C      12.780000    0.000000    6.000000
C      13.490000    0.000000    6.000000
C      14.200000    1.299000    6.000000
C      15.620000    1.229000    6.000000
